Sou graduado em licenciatura em Física, com ênfase em simulação computacional utilizando o ANSYS CFX e Pós-graduação em Biofísica.

Atualmente sou coordenador de tecnologia na Secretaria de educação de Serra Talhada, onde pude desenvolver minhas habilidades como técnico de informática e gestão de equipe.
 
Procuro me desenvolver na área de programação de forma autodidata, adquirindo conhecimento em HTML, CSS, Javascript, Typescript, Node Js e React.